3080615
  -OEChem-09092601373D

 91 93  0     1  0  0  0  0  0999 V2000
   -0.2995    0.0639   -1.4821 O   0  0  0  0  0  0  0  0  0  0  0  0
   -1.7432   -0.6338    0.6762 O   0  0  0  0  0  0  0  0  0  0  0  0
    2.5089   -0.9321   -1.5923 O   0  0  0  0  0  0  0  0  0  0  0  0
   -0.5169    1.6884    0.1720 O   0  0  0  0  0  0  0  0  0  0  0  0
   -3.6831   -0.8214   -0.5979 O   0  0  0  0  0  0  0  0  0  0  0  0
    3.2312   -0.0021    0.4164 O   0  0  0  0  0  0  0  0  0  0  0  0
   -1.4528    4.5875   -2.5899 O   0  0  0  0  0  0  0  0  0  0  0  0
   -6.0735   -0.0451    2.6566 O   0  0  0  0  0  0  0  0  0  0  0  0
   -0.6272    5.3587    0.0561 O   0  0  0  0  0  0  0  0  0  0  0  0
    7.1827   -0.3898   -0.6534 O   0  0  0  0  0  0  0  0  0  0  0  0
   -7.2210   -1.2345    0.3016 O   0  0  0  0  0  0  0  0  0  0  0  0
    6.4933    0.0463    2.1056 O   0  0  0  0  0  0  0  0  0  0  0  0
    1.5906   -3.3441   -3.0278 O   0  0  0  0  0  0  0  0  0  0  0  0
    0.0158    2.1662    2.8198 O   0  0  0  0  0  0  0  0  0  0  0  0
   -4.5954   -1.6803   -3.0378 O   0  0  0  0  0  0  0  0  0  0  0  0
    3.7374    2.2693    1.9132 O   0  0  0  0  0  0  0  0  0  0  0  0
    1.8888   -2.4380    2.1468 O   0  0  0  0  0  0  0  0  0  0  0  0
   -0.1580    2.1228   -3.4944 N   0  0  0  0  0  0  0  0  0  0  0  0
   -3.2988   -0.8708    3.0913 N   0  0  0  0  0  0  0  0  0  0  0  0
    5.1602   -1.9523   -2.0808 N   0  0  0  0  0  0  0  0  0  0  0  0
    0.0863   -3.8317    0.8449 N   0  0  0  0  0  0  0  0  0  0  0  0
    0.3140   -0.8350   -0.5478 C   0  0  1  0  0  0  0  0  0  0  0  0
   -0.8215   -1.6050    0.1577 C   0  0  1  0  0  0  0  0  0  0  0  0
    1.3440   -1.7023   -1.2910 C   0  0  1  0  0  0  0  0  0  0  0  0
   -0.0250    1.4221   -1.1420 C   0  0  2  0  0  0  0  0  0  0  0  0
   -0.7255    2.3311   -2.1590 C   0  0  1  0  0  0  0  0  0  0  0  0
   -3.0787   -1.1354    0.6573 C   0  0  2  0  0  0  0  0  0  0  0  0
   -3.8638   -0.4762    1.7974 C   0  0  1  0  0  0  0  0  0  0  0  0
   -0.5868    3.8058   -1.7650 C   0  0  2  0  0  0  0  0  0  0  0  0
    3.4762   -1.0267   -0.5478 C   0  0  2  0  0  0  0  0  0  0  0  0
    4.8719   -0.8506   -1.1578 C   0  0  1  0  0  0  0  0  0  0  0  0
   -5.3451   -0.8663    1.7422 C   0  0  2  0  0  0  0  0  0  0  0  0
   -0.9732    4.0226   -0.2989 C   0  0  1  0  0  0  0  0  0  0  0  0
   -0.2448    3.0230    0.6049 C   0  0  1  0  0  0  0  0  0  0  0  0
    5.9464   -0.7994   -0.0659 C   0  0  2  0  0  0  0  0  0  0  0  0
   -5.9153   -0.6643    0.3351 C   0  0  1  0  0  0  0  0  0  0  0  0
   -5.0152   -1.3265   -0.7126 C   0  0  1  0  0  0  0  0  0  0  0  0
    5.5676    0.1982    1.0328 C   0  0  1  0  0  0  0  0  0  0  0  0
   -0.3726   -2.5253    1.3057 C   0  0  2  0  0  0  0  0  0  0  0  0
    4.1374   -0.0532    1.5206 C   0  0  1  0  0  0  0  0  0  0  0  0
    0.7956   -2.2373   -2.6133 C   0  0  0  0  0  0  0  0  0  0  0  0
   -0.6944    3.1263    2.0589 C   0  0  0  0  0  0  0  0  0  0  0  0
   -5.4836   -1.0445   -2.1366 C   0  0  0  0  0  0  0  0  0  0  0  0
    3.6792    0.9955    2.5290 C   0  0  0  0  0  0  0  0  0  0  0  0
    0.7874   -1.9036    2.0519 C   0  0  0  0  0  0  0  0  0  0  0  0
    0.8421   -0.2472    0.2077 H   0  0  0  0  0  0  0  0  0  0  0  0
   -1.3510   -2.1903   -0.6063 H   0  0  0  0  0  0  0  0  0  0  0  0
    1.6355   -2.5665   -0.6904 H   0  0  0  0  0  0  0  0  0  0  0  0
    1.0623    1.5829   -1.1655 H   0  0  0  0  0  0  0  0  0  0  0  0
   -1.7897    2.0646   -2.2094 H   0  0  0  0  0  0  0  0  0  0  0  0
   -3.0896   -2.2267    0.7921 H   0  0  0  0  0  0  0  0  0  0  0  0
   -3.7699    0.6151    1.7178 H   0  0  0  0  0  0  0  0  0  0  0  0
    0.4345    4.1666   -1.9415 H   0  0  0  0  0  0  0  0  0  0  0  0
    3.4352   -2.0053   -0.0507 H   0  0  0  0  0  0  0  0  0  0  0  0
    4.8979    0.0803   -1.7397 H   0  0  0  0  0  0  0  0  0  0  0  0
   -5.4910   -1.9062    2.0608 H   0  0  0  0  0  0  0  0  0  0  0  0
   -2.0595    3.9228   -0.1852 H   0  0  0  0  0  0  0  0  0  0  0  0
    0.8415    3.1839    0.5742 H   0  0  0  0  0  0  0  0  0  0  0  0
    6.1134   -1.7925    0.3700 H   0  0  0  0  0  0  0  0  0  0  0  0
   -6.0195    0.4081    0.1300 H   0  0  0  0  0  0  0  0  0  0  0  0
   -4.9882   -2.4160   -0.5752 H   0  0  0  0  0  0  0  0  0  0  0  0
    5.6806    1.2174    0.6454 H   0  0  0  0  0  0  0  0  0  0  0  0
   -1.1744   -2.6746    2.0356 H   0  0  0  0  0  0  0  0  0  0  0  0
    4.0708   -1.0339    2.0072 H   0  0  0  0  0  0  0  0  0  0  0  0
   -0.2304   -2.6007   -2.5136 H   0  0  0  0  0  0  0  0  0  0  0  0
    0.8389   -1.4798   -3.4029 H   0  0  0  0  0  0  0  0  0  0  0  0
   -1.7624    2.9021    2.1531 H   0  0  0  0  0  0  0  0  0  0  0  0
   -0.4947    4.1204    2.4698 H   0  0  0  0  0  0  0  0  0  0  0  0
   -5.4618    0.0298   -2.3486 H   0  0  0  0  0  0  0  0  0  0  0  0
   -6.4943   -1.4270   -2.3080 H   0  0  0  0  0  0  0  0  0  0  0  0
   -0.2881    1.1508   -3.7721 H   0  0  0  0  0  0  0  0  0  0  0  0
   -0.6659    2.6889   -4.1728 H   0  0  0  0  0  0  0  0  0  0  0  0
    4.3117    0.9990    3.4217 H   0  0  0  0  0  0  0  0  0  0  0  0
    2.6412    0.8125    2.8242 H   0  0  0  0  0  0  0  0  0  0  0  0
   -2.3266   -0.5693    3.1443 H   0  0  0  0  0  0  0  0  0  0  0  0
   -3.7931   -0.3880    3.8406 H   0  0  0  0  0  0  0  0  0  0  0  0
    4.4686   -1.9595   -2.8294 H   0  0  0  0  0  0  0  0  0  0  0  0
    6.0654   -1.7985   -2.5233 H   0  0  0  0  0  0  0  0  0  0  0  0
   -2.3647    4.2830   -2.4439 H   0  0  0  0  0  0  0  0  0  0  0  0
   -0.6624   -4.2943    0.3308 H   0  0  0  0  0  0  0  0  0  0  0  0
    0.2908   -4.4278    1.6462 H   0  0  0  0  0  0  0  0  0  0  0  0
    0.5817   -0.9361    2.5419 H   0  0  0  0  0  0  0  0  0  0  0  0
   -5.9576    0.8822    2.3876 H   0  0  0  0  0  0  0  0  0  0  0  0
    0.3399    5.4439   -0.0006 H   0  0  0  0  0  0  0  0  0  0  0  0
    7.0537    0.4903   -1.0460 H   0  0  0  0  0  0  0  0  0  0  0  0
   -7.1340   -2.1931    0.4407 H   0  0  0  0  0  0  0  0  0  0  0  0
    6.3809   -0.8458    2.4761 H   0  0  0  0  0  0  0  0  0  0  0  0
    1.2222   -3.6600   -3.8705 H   0  0  0  0  0  0  0  0  0  0  0  0
   -0.2911    2.2438    3.7391 H   0  0  0  0  0  0  0  0  0  0  0  0
   -4.9097   -1.4843   -3.9368 H   0  0  0  0  0  0  0  0  0  0  0  0
    3.4250    2.9184    2.5664 H   0  0  0  0  0  0  0  0  0  0  0  0
  1 22  1  0  0  0  0
  1 25  1  0  0  0  0
  2 23  1  0  0  0  0
  2 27  1  0  0  0  0
  3 24  1  0  0  0  0
  3 30  1  0  0  0  0
  4 25  1  0  0  0  0
  4 34  1  0  0  0  0
  5 27  1  0  0  0  0
  5 37  1  0  0  0  0
  6 30  1  0  0  0  0
  6 40  1  0  0  0  0
  7 29  1  0  0  0  0
  7 79  1  0  0  0  0
  8 32  1  0  0  0  0
  8 83  1  0  0  0  0
  9 33  1  0  0  0  0
  9 84  1  0  0  0  0
 10 35  1  0  0  0  0
 10 85  1  0  0  0  0
 11 36  1  0  0  0  0
 11 86  1  0  0  0  0
 12 38  1  0  0  0  0
 12 87  1  0  0  0  0
 13 41  1  0  0  0  0
 13 88  1  0  0  0  0
 14 42  1  0  0  0  0
 14 89  1  0  0  0  0
 15 43  1  0  0  0  0
 15 90  1  0  0  0  0
 16 44  1  0  0  0  0
 16 91  1  0  0  0  0
 17 45  2  0  0  0  0
 18 26  1  0  0  0  0
 18 71  1  0  0  0  0
 18 72  1  0  0  0  0
 19 28  1  0  0  0  0
 19 75  1  0  0  0  0
 19 76  1  0  0  0  0
 20 31  1  0  0  0  0
 20 77  1  0  0  0  0
 20 78  1  0  0  0  0
 21 39  1  0  0  0  0
 21 80  1  0  0  0  0
 21 81  1  0  0  0  0
 22 23  1  0  0  0  0
 22 24  1  0  0  0  0
 22 46  1  0  0  0  0
 23 39  1  0  0  0  0
 23 47  1  0  0  0  0
 24 41  1  0  0  0  0
 24 48  1  0  0  0  0
 25 26  1  0  0  0  0
 25 49  1  0  0  0  0
 26 29  1  0  0  0  0
 26 50  1  0  0  0  0
 27 28  1  0  0  0  0
 27 51  1  0  0  0  0
 28 32  1  0  0  0  0
 28 52  1  0  0  0  0
 29 33  1  0  0  0  0
 29 53  1  0  0  0  0
 30 31  1  0  0  0  0
 30 54  1  0  0  0  0
 31 35  1  0  0  0  0
 31 55  1  0  0  0  0
 32 36  1  0  0  0  0
 32 56  1  0  0  0  0
 33 34  1  0  0  0  0
 33 57  1  0  0  0  0
 34 42  1  0  0  0  0
 34 58  1  0  0  0  0
 35 38  1  0  0  0  0
 35 59  1  0  0  0  0
 36 37  1  0  0  0  0
 36 60  1  0  0  0  0
 37 43  1  0  0  0  0
 37 61  1  0  0  0  0
 38 40  1  0  0  0  0
 38 62  1  0  0  0  0
 39 45  1  0  0  0  0
 39 63  1  0  0  0  0
 40 44  1  0  0  0  0
 40 64  1  0  0  0  0
 41 65  1  0  0  0  0
 41 66  1  0  0  0  0
 42 67  1  0  0  0  0
 42 68  1  0  0  0  0
 43 69  1  0  0  0  0
 43 70  1  0  0  0  0
 44 73  1  0  0  0  0
 44 74  1  0  0  0  0
 45 82  1  0  0  0  0
M  END
> <PUBCHEM_COMPOUND_CID>
3080615

> <PUBCHEM_CONFORMER_RMSD>
1.4

> <PUBCHEM_CONFORMER_DIVERSEORDER>
1
3
5
2
4

> <PUBCHEM_MMFF94_PARTIAL_CHARGES>
64
1 -0.56
10 -0.68
11 -0.68
12 -0.68
13 -0.68
14 -0.68
15 -0.68
16 -0.68
17 -0.57
18 -0.99
19 -0.99
2 -0.56
20 -0.99
21 -0.99
22 0.28
23 0.28
24 0.28
25 0.56
26 0.27
27 0.56
28 0.27
29 0.28
3 -0.56
30 0.56
31 0.27
32 0.28
33 0.28
34 0.28
35 0.28
36 0.28
37 0.28
38 0.28
39 0.33
4 -0.56
40 0.28
41 0.28
42 0.28
43 0.28
44 0.28
45 0.45
5 -0.56
6 -0.56
7 -0.68
71 0.36
72 0.36
75 0.36
76 0.36
77 0.36
78 0.36
79 0.4
8 -0.68
80 0.36
81 0.36
82 0.06
83 0.4
84 0.4
85 0.4
86 0.4
87 0.4
88 0.4
89 0.4
9 -0.68
90 0.4
91 0.4

> <PUBCHEM_EFFECTIVE_ROTOR_COUNT>
17.6

> <PUBCHEM_PHARMACOPHORE_FEATURES>
38
1 1 acceptor
1 10 acceptor
1 10 donor
1 11 acceptor
1 11 donor
1 12 acceptor
1 12 donor
1 13 acceptor
1 13 donor
1 14 acceptor
1 14 donor
1 15 acceptor
1 15 donor
1 16 acceptor
1 16 donor
1 17 acceptor
1 18 cation
1 18 donor
1 19 cation
1 19 donor
1 2 acceptor
1 20 cation
1 20 donor
1 21 cation
1 21 donor
1 3 acceptor
1 4 acceptor
1 5 acceptor
1 6 acceptor
1 7 acceptor
1 7 donor
1 8 acceptor
1 8 donor
1 9 acceptor
1 9 donor
6 4 25 26 29 33 34 rings
6 5 27 28 32 36 37 rings
6 6 30 31 35 38 40 rings

> <PUBCHEM_HEAVY_ATOM_COUNT>
45

> <PUBCHEM_ATOM_DEF_STEREO_COUNT>
19

> <PUBCHEM_ATOM_UDEF_STEREO_COUNT>
0

> <PUBCHEM_BOND_DEF_STEREO_COUNT>
0

> <PUBCHEM_BOND_UDEF_STEREO_COUNT>
0

> <PUBCHEM_ISOTOPIC_ATOM_COUNT>
0

> <PUBCHEM_COMPONENT_COUNT>
1

> <PUBCHEM_CACTVS_TAUTO_COUNT>
4

> <PUBCHEM_CONFORMER_ID>
002F01A700000001

> <PUBCHEM_MMFF94_ENERGY>
113.9029

> <PUBCHEM_FEATURE_SELFOVERLAP>
193.111

> <PUBCHEM_SHAPE_FINGERPRINT>
102385 1 17684645437654038907
10764073 3 17346050956592882945
10930396 42 18190718995259340560
11456790 92 17386018261014552145
11578080 2 17629492895280580985
11646440 116 18260840305901583027
12107698 1 18341890784611300546
12156800 1 17897980500626471377
12788726 201 17894917317371335132
1361 2 17632009862080569634
13782708 43 18198634229144409822
13911987 19 17897194448591494159
14004853 49 17251455393258370421
14068700 675 17894910746023802516
14955137 171 18115886237698498155
15131766 46 16270500054414105712
15775530 1 17838623253610353182
17980427 23 18129102393434466671
20600515 1 18116456858210068286
24893992 56 17967819384312360931
283562 15 18261116205736306742
3380486 77 17532114793774149414
3493558 16 17343206734638429839
469060 322 17895206441199983904
77296 10 17060338586775258331

> <PUBCHEM_SHAPE_MULTIPOLES>
806.38
13.25
4.83
3.49
0.54
6.7
-0.63
-7.58
3.11
-1.15
-1.72
-0.81
0.1
1.69

> <PUBCHEM_SHAPE_SELFOVERLAP>
1648.893

> <PUBCHEM_SHAPE_VOLUME>
455

> <PUBCHEM_COORDINATE_TYPE>
2
5
10

$$$$
