123966
  -OEChem-09092601373D

 87 89  0     1  0  0  0  0  0999 V2000
    0.2023    1.0250    1.0554 O   0  0  0  0  0  0  0  0  0  0  0  0
   -1.6044    1.0878   -0.4340 O   0  0  0  0  0  0  0  0  0  0  0  0
   -4.3213    0.1725    0.3852 O   0  0  0  0  0  0  0  0  0  0  0  0
    2.6470    0.0391   -1.5213 O   0  0  0  0  0  0  0  0  0  0  0  0
   -6.6012    0.1440   -0.2644 O   0  0  0  0  0  0  0  0  0  0  0  0
    4.4726   -0.1052   -0.0157 O   0  0  0  0  0  0  0  0  0  0  0  0
   -3.3237    3.3889    1.7401 O   0  0  0  0  0  0  0  0  0  0  0  0
   -2.0917    0.0036    2.2097 O   0  0  0  0  0  0  0  0  0  0  0  0
    1.8539    3.3614    0.7991 O   0  0  0  0  0  0  0  0  0  0  0  0
    4.5867    2.6955    0.1180 O   0  0  0  0  0  0  0  0  0  0  0  0
   -4.9544   -1.3118    2.6811 O   0  0  0  0  0  0  0  0  0  0  0  0
   -6.3847   -3.5590    1.5498 O   0  0  0  0  0  0  0  0  0  0  0  0
   -6.5769   -3.3903   -1.3116 O   0  0  0  0  0  0  0  0  0  0  0  0
   -3.9214    3.5037   -1.9063 O   0  0  0  0  0  0  0  0  0  0  0  0
    0.9943   -2.1239   -1.7287 O   0  0  0  0  0  0  0  0  0  0  0  0
   -7.1773    0.5335   -2.9043 O   0  0  0  0  0  0  0  0  0  0  0  0
    7.5726   -1.1972   -1.6072 O   0  0  0  0  0  0  0  0  0  0  0  0
    6.1933   -3.2724   -0.4718 O   0  0  0  0  0  0  0  0  0  0  0  0
    8.1123   -1.1036    1.0013 O   0  0  0  0  0  0  0  0  0  0  0  0
    4.1799   -4.0894    1.2242 O   0  0  0  0  0  0  0  0  0  0  0  0
    9.8198    0.8493    0.4066 O   0  0  0  0  0  0  0  0  0  0  0  0
   -3.9118    1.5401    0.2859 C   0  0  1  0  0  0  0  0  0  0  0  0
    1.1362    1.2176   -0.0044 C   0  0  1  0  0  0  0  0  0  0  0  0
   -3.3883    1.9683    1.6630 C   0  0  1  0  0  0  0  0  0  0  0  0
   -1.9939    1.4035    1.9438 C   0  0  2  0  0  0  0  0  0  0  0  0
   -1.0521    1.6367    0.7607 C   0  0  1  0  0  0  0  0  0  0  0  0
   -2.8610    1.6504   -0.8325 C   0  0  1  0  0  0  0  0  0  0  0  0
    2.3111    2.0316    0.5415 C   0  0  1  0  0  0  0  0  0  0  0  0
    1.6066   -0.1363   -0.5530 C   0  0  1  0  0  0  0  0  0  0  0  0
    3.4482    2.0829   -0.4769 C   0  0  2  0  0  0  0  0  0  0  0  0
   -5.6752    0.0654    0.8213 C   0  0  1  0  0  0  0  0  0  0  0  0
    3.8059    0.6890   -0.9951 C   0  0  2  0  0  0  0  0  0  0  0  0
   -5.9277   -1.1956    1.6491 C   0  0  1  0  0  0  0  0  0  0  0  0
   -5.9000   -2.4538    0.7835 C   0  0  2  0  0  0  0  0  0  0  0  0
   -6.8033   -2.2852   -0.4398 C   0  0  1  0  0  0  0  0  0  0  0  0
   -6.5127   -0.9650   -1.1664 C   0  0  1  0  0  0  0  0  0  0  0  0
   -2.6848    3.0686   -1.3718 C   0  0  0  0  0  0  0  0  0  0  0  0
    0.4786   -0.8978   -1.2439 C   0  0  0  0  0  0  0  0  0  0  0  0
    5.3971   -1.0111   -0.6272 C   0  0  1  0  0  0  0  0  0  0  0  0
   -7.5058   -0.7014   -2.2951 C   0  0  0  0  0  0  0  0  0  0  0  0
    6.7609   -0.3234   -0.8133 C   0  0  1  0  0  0  0  0  0  0  0  0
    5.4126   -2.2896    0.2238 C   0  0  1  0  0  0  0  0  0  0  0  0
    7.5201    0.0725    0.4603 C   0  0  2  0  0  0  0  0  0  0  0  0
    4.0338   -2.8981    0.4559 C   0  0  0  0  0  0  0  0  0  0  0  0
    8.6278    1.0790    0.2259 C   0  0  0  0  0  0  0  0  0  0  0  0
   -4.7767    2.1530    0.0010 H   0  0  0  0  0  0  0  0  0  0  0  0
    0.6965    1.7950   -0.8313 H   0  0  0  0  0  0  0  0  0  0  0  0
   -4.0640    1.6346    2.4577 H   0  0  0  0  0  0  0  0  0  0  0  0
   -1.5584    1.8679    2.8367 H   0  0  0  0  0  0  0  0  0  0  0  0
   -0.8808    2.7120    0.6344 H   0  0  0  0  0  0  0  0  0  0  0  0
   -3.2076    1.0254   -1.6661 H   0  0  0  0  0  0  0  0  0  0  0  0
    2.6580    1.6323    1.5016 H   0  0  0  0  0  0  0  0  0  0  0  0
    1.9801   -0.7620    0.2634 H   0  0  0  0  0  0  0  0  0  0  0  0
    3.1422    2.7110   -1.3235 H   0  0  0  0  0  0  0  0  0  0  0  0
   -5.9102    0.9095    1.4814 H   0  0  0  0  0  0  0  0  0  0  0  0
    4.4776    0.8521   -1.8465 H   0  0  0  0  0  0  0  0  0  0  0  0
   -6.9112   -1.1250    2.1313 H   0  0  0  0  0  0  0  0  0  0  0  0
   -4.8741   -2.7070    0.4918 H   0  0  0  0  0  0  0  0  0  0  0  0
   -7.8547   -2.3243   -0.1296 H   0  0  0  0  0  0  0  0  0  0  0  0
   -5.5055   -0.9765   -1.6037 H   0  0  0  0  0  0  0  0  0  0  0  0
   -2.3638    3.7779   -0.6053 H   0  0  0  0  0  0  0  0  0  0  0  0
   -1.9282    3.0792   -2.1640 H   0  0  0  0  0  0  0  0  0  0  0  0
   -0.3349   -1.1247   -0.5496 H   0  0  0  0  0  0  0  0  0  0  0  0
    0.0921   -0.3371   -2.1011 H   0  0  0  0  0  0  0  0  0  0  0  0
    5.0324   -1.3120   -1.6215 H   0  0  0  0  0  0  0  0  0  0  0  0
   -4.2210    3.7318    1.5893 H   0  0  0  0  0  0  0  0  0  0  0  0
   -2.6671   -0.1080    2.9855 H   0  0  0  0  0  0  0  0  0  0  0  0
    1.5495    3.7457   -0.0407 H   0  0  0  0  0  0  0  0  0  0  0  0
   -8.5260   -0.6205   -1.9054 H   0  0  0  0  0  0  0  0  0  0  0  0
   -7.4690   -1.4907   -3.0520 H   0  0  0  0  0  0  0  0  0  0  0  0
    4.3122    3.5709    0.4405 H   0  0  0  0  0  0  0  0  0  0  0  0
    6.6090    0.5861   -1.4061 H   0  0  0  0  0  0  0  0  0  0  0  0
    5.8764   -2.1159    1.1998 H   0  0  0  0  0  0  0  0  0  0  0  0
   -5.0145   -0.5118    3.2306 H   0  0  0  0  0  0  0  0  0  0  0  0
   -7.2926   -3.3567    1.8331 H   0  0  0  0  0  0  0  0  0  0  0  0
   -5.6563   -3.3442   -1.6216 H   0  0  0  0  0  0  0  0  0  0  0  0
   -3.7826    4.3996   -2.2578 H   0  0  0  0  0  0  0  0  0  0  0  0
    0.2617   -2.5913   -2.1651 H   0  0  0  0  0  0  0  0  0  0  0  0
    6.8468    0.5043    1.2073 H   0  0  0  0  0  0  0  0  0  0  0  0
    3.5537   -3.1656   -0.4906 H   0  0  0  0  0  0  0  0  0  0  0  0
    3.3921   -2.2206    1.0218 H   0  0  0  0  0  0  0  0  0  0  0  0
   -7.8223    0.6829   -3.6165 H   0  0  0  0  0  0  0  0  0  0  0  0
    8.3952   -0.7234   -1.8177 H   0  0  0  0  0  0  0  0  0  0  0  0
    6.2125   -4.0724    0.0809 H   0  0  0  0  0  0  0  0  0  0  0  0
    8.2942    2.0710   -0.1249 H   0  0  0  0  0  0  0  0  0  0  0  0
    8.6609   -1.5106    0.3091 H   0  0  0  0  0  0  0  0  0  0  0  0
    3.2881   -4.4545    1.3550 H   0  0  0  0  0  0  0  0  0  0  0  0
  1 23  1  0  0  0  0
  1 26  1  0  0  0  0
  2 26  1  0  0  0  0
  2 27  1  0  0  0  0
  3 22  1  0  0  0  0
  3 31  1  0  0  0  0
  4 29  1  0  0  0  0
  4 32  1  0  0  0  0
  5 31  1  0  0  0  0
  5 36  1  0  0  0  0
  6 32  1  0  0  0  0
  6 39  1  0  0  0  0
  7 24  1  0  0  0  0
  7 66  1  0  0  0  0
  8 25  1  0  0  0  0
  8 67  1  0  0  0  0
  9 28  1  0  0  0  0
  9 68  1  0  0  0  0
 10 30  1  0  0  0  0
 10 71  1  0  0  0  0
 11 33  1  0  0  0  0
 11 74  1  0  0  0  0
 12 34  1  0  0  0  0
 12 75  1  0  0  0  0
 13 35  1  0  0  0  0
 13 76  1  0  0  0  0
 14 37  1  0  0  0  0
 14 77  1  0  0  0  0
 15 38  1  0  0  0  0
 15 78  1  0  0  0  0
 16 40  1  0  0  0  0
 16 82  1  0  0  0  0
 17 41  1  0  0  0  0
 17 83  1  0  0  0  0
 18 42  1  0  0  0  0
 18 84  1  0  0  0  0
 19 43  1  0  0  0  0
 19 86  1  0  0  0  0
 20 44  1  0  0  0  0
 20 87  1  0  0  0  0
 21 45  2  0  0  0  0
 22 24  1  0  0  0  0
 22 27  1  0  0  0  0
 22 46  1  0  0  0  0
 23 28  1  0  0  0  0
 23 29  1  0  0  0  0
 23 47  1  0  0  0  0
 24 25  1  0  0  0  0
 24 48  1  0  0  0  0
 25 26  1  0  0  0  0
 25 49  1  0  0  0  0
 26 50  1  0  0  0  0
 27 37  1  0  0  0  0
 27 51  1  0  0  0  0
 28 30  1  0  0  0  0
 28 52  1  0  0  0  0
 29 38  1  0  0  0  0
 29 53  1  0  0  0  0
 30 32  1  0  0  0  0
 30 54  1  0  0  0  0
 31 33  1  0  0  0  0
 31 55  1  0  0  0  0
 32 56  1  0  0  0  0
 33 34  1  0  0  0  0
 33 57  1  0  0  0  0
 34 35  1  0  0  0  0
 34 58  1  0  0  0  0
 35 36  1  0  0  0  0
 35 59  1  0  0  0  0
 36 40  1  0  0  0  0
 36 60  1  0  0  0  0
 37 61  1  0  0  0  0
 37 62  1  0  0  0  0
 38 63  1  0  0  0  0
 38 64  1  0  0  0  0
 39 41  1  0  0  0  0
 39 42  1  0  0  0  0
 39 65  1  0  0  0  0
 40 69  1  0  0  0  0
 40 70  1  0  0  0  0
 41 43  1  0  0  0  0
 41 72  1  0  0  0  0
 42 44  1  0  0  0  0
 42 73  1  0  0  0  0
 43 45  1  0  0  0  0
 43 79  1  0  0  0  0
 44 80  1  0  0  0  0
 44 81  1  0  0  0  0
 45 85  1  0  0  0  0
M  END
> <PUBCHEM_COMPOUND_CID>
123966

> <PUBCHEM_CONFORMER_RMSD>
1.4

> <PUBCHEM_CONFORMER_DIVERSEORDER>
1
12
9
14
21
11
4
20
16
18
15
5
6
2
8
13
17
7
10
19
3

> <PUBCHEM_MMFF94_PARTIAL_CHARGES>
60
1 -0.56
10 -0.68
11 -0.68
12 -0.68
13 -0.68
14 -0.68
15 -0.68
16 -0.68
17 -0.68
18 -0.68
19 -0.68
2 -0.56
20 -0.68
21 -0.57
22 0.28
23 0.28
24 0.28
25 0.28
26 0.56
27 0.28
28 0.28
29 0.28
3 -0.56
30 0.28
31 0.56
32 0.56
33 0.28
34 0.28
35 0.28
36 0.28
37 0.28
38 0.28
39 0.28
4 -0.56
40 0.28
41 0.28
42 0.28
43 0.34
44 0.28
45 0.45
5 -0.56
6 -0.56
66 0.4
67 0.4
68 0.4
7 -0.68
71 0.4
74 0.4
75 0.4
76 0.4
77 0.4
78 0.4
8 -0.68
82 0.4
83 0.4
84 0.4
85 0.06
86 0.4
87 0.4
9 -0.68

> <PUBCHEM_EFFECTIVE_ROTOR_COUNT>
17.6

> <PUBCHEM_PHARMACOPHORE_FEATURES>
38
1 1 acceptor
1 10 acceptor
1 10 donor
1 11 acceptor
1 11 donor
1 12 acceptor
1 12 donor
1 13 acceptor
1 13 donor
1 14 acceptor
1 14 donor
1 15 acceptor
1 15 donor
1 16 acceptor
1 16 donor
1 17 acceptor
1 17 donor
1 18 acceptor
1 18 donor
1 19 acceptor
1 19 donor
1 2 acceptor
1 20 acceptor
1 20 donor
1 21 acceptor
1 3 acceptor
1 4 acceptor
1 5 acceptor
1 6 acceptor
1 7 acceptor
1 7 donor
1 8 acceptor
1 8 donor
1 9 acceptor
1 9 donor
6 2 22 24 25 26 27 rings
6 4 23 28 29 30 32 rings
6 5 31 33 34 35 36 rings

> <PUBCHEM_HEAVY_ATOM_COUNT>
45

> <PUBCHEM_ATOM_DEF_STEREO_COUNT>
19

> <PUBCHEM_ATOM_UDEF_STEREO_COUNT>
0

> <PUBCHEM_BOND_DEF_STEREO_COUNT>
0

> <PUBCHEM_BOND_UDEF_STEREO_COUNT>
0

> <PUBCHEM_ISOTOPIC_ATOM_COUNT>
0

> <PUBCHEM_COMPONENT_COUNT>
1

> <PUBCHEM_CACTVS_TAUTO_COUNT>
6

> <PUBCHEM_CONFORMER_ID>
0001E43E00000001

> <PUBCHEM_MMFF94_ENERGY>
135.4911

> <PUBCHEM_FEATURE_SELFOVERLAP>
193.16

> <PUBCHEM_SHAPE_FINGERPRINT>
10391435 84 18259702306913826387
11135926 11 18333735702589326259
12106331 60 17702665437169853976
12373685 5 17385714752032420354
12522641 126 18191029100198305052
13560911 23 18271808986418597721
1361 4 18339645538501509950
13782708 43 18335991908121286268
13811026 1 18334858350614763544
14118638 360 18341049632098302602
14294032 229 16559031588375227869
15183329 4 15574724565108977800
18603816 31 17917419953074834983
19958102 18 18334013900152308683
21033650 10 16298663894309384709
21223535 225 14851597761848038999
21792965 131 18272081760013080086
25222932 49 18411987936421654438
2747138 104 17775291534801765704
4173938 188 18201432623944292434
437795 163 18411985771452188402
4461854 278 17489595597076355758
50009960 94 17826224104699091378
504579 68 17022899051581207577
6086070 43 14129346229560465380
6328613 192 10737282471994612467

> <PUBCHEM_SHAPE_MULTIPOLES>
802.82
26.17
4.16
2.03
21.64
1.18
0.11
14.19
3.35
-1.54
-0.52
-4.12
0
0.61

> <PUBCHEM_SHAPE_SELFOVERLAP>
1646.683

> <PUBCHEM_SHAPE_VOLUME>
452.4

> <PUBCHEM_COORDINATE_TYPE>
2
5
10

$$$$
