A
  CCTOOLS-0724261005

 37 39  0  0  1  0  0  0  0  0999 V2000
    2.1350   -1.1410   -5.3130 O   0  0  0  0  0
    1.0240   -0.1370   -4.7230 P   0  0  0  0  0
    1.6330    1.1900   -4.4880 O   0  0  0  0  0
   -0.1830    0.0050   -5.7780 O   0  0  0  0  0
    0.4560   -0.7200   -3.3340 O   0  0  0  0  0
   -0.5200    0.2090   -2.8630 C   0  0  0  0  0
   -1.1010   -0.2870   -1.5380 C   0  0  0  0  0
   -0.0640   -0.3830   -0.5380 O   0  0  0  0  0
   -2.1050    0.7390   -0.9690 C   0  0  0  0  0
   -3.4450    0.3600   -1.2870 O   0  0  0  0  0
   -1.8740    0.6840    0.5580 C   0  0  0  0  0
   -3.0650    0.2710    1.2310 O   0  0  0  0  0
   -0.7550   -0.3670    0.7290 C   0  0  0  0  0
    0.1580    0.0290    1.8030 N   0  0  0  0  0
    1.2650    0.8130    1.6720 C   0  0  0  0  0
    1.8430    0.9630    2.8280 N   0  0  0  0  0
    1.1430    0.2920    3.7730 C   0  0  0  0  0
    1.2900    0.0910    5.1560 C   0  0  0  0  0
    2.3440    0.6640    5.8460 N   0  0  0  0  0
    0.3910   -0.6560    5.7870 N   0  0  0  0  0
   -0.6170   -1.2060    5.1360 C   0  0  0  0  0
   -0.7920   -1.0510    3.8410 N   0  0  0  0  0
    0.0560   -0.3200    3.1260 C   0  0  0  0  0
    2.4480   -0.7550   -6.1420 H   0  0  0  0  0
   -0.5520   -0.8790   -5.9020 H   0  0  0  0  0
   -1.3190    0.3010   -3.5990 H   0  0  0  0  0
   -0.0520    1.1820   -2.7120 H   0  0  0  0  0
   -1.5860   -1.2540   -1.6770 H   0  0  0  0  0
   -1.8900    1.7360   -1.3530 H   0  0  0  0  0
   -4.0240    1.0350   -0.9080 H   0  0  0  0  0
   -1.5430    1.6540    0.9300 H   0  0  0  0  0
   -3.7400    0.9360    1.0370 H   0  0  0  0  0
   -1.1850   -1.3460    0.9400 H   0  0  0  0  0
    1.6110    1.2460    0.7450 H   0  0  0  0  0
    2.4320    0.5220    6.8010 H   0  0  0  0  0
    2.9960    1.2050    5.3740 H   0  0  0  0  0
   -1.3250   -1.8070    5.6880 H   0  0  0  0  0
  1  2  1  0  0  0
  1 24  1  0  0  0
  2  3  2  0  0  0
  2  4  1  0  0  0
  2  5  1  0  0  0
  4 25  1  0  0  0
  5  6  1  0  0  0
  6  7  1  0  0  0
  6 26  1  0  0  0
  6 27  1  0  0  0
  7  8  1  0  0  0
  7  9  1  0  0  0
  7 28  1  0  0  0
  8 13  1  0  0  0
  9 10  1  0  0  0
  9 11  1  0  0  0
  9 29  1  0  0  0
 10 30  1  0  0  0
 11 12  1  0  0  0
 11 13  1  0  0  0
 11 31  1  0  0  0
 12 32  1  0  0  0
 13 14  1  0  0  0
 13 33  1  0  0  0
 14 15  1  0  0  0
 14 23  1  0  0  0
 15 16  2  0  0  0
 15 34  1  0  0  0
 16 17  1  0  0  0
 17 18  1  0  0  0
 17 23  2  0  0  0
 18 19  1  0  0  0
 18 20  2  0  0  0
 19 35  1  0  0  0
 19 36  1  0  0  0
 20 21  1  0  0  0
 21 22  2  0  0  0
 21 37  1  0  0  0
 22 23  1  0  0  0
M  END
$$$$
