C
  CCTOOLS-0919241036

 35 36  0  0  1  0  0  0  0  0999 V2000
    2.1470   -1.0210   -4.6780 O   0  0  0  0  0
    1.0490   -0.0390   -4.0280 P   0  0  0  0  0
    1.6920    1.2370   -3.6460 O   0  0  0  0  0
   -0.1160    0.2460   -5.1020 O   0  0  0  0  0
    0.4150   -0.7330   -2.7210 O   0  0  0  0  0
   -0.5460    0.1810   -2.1930 C   0  0  0  0  0
   -1.1890   -0.4190   -0.9420 C   0  0  0  0  0
   -0.1900   -0.6480    0.0760 O   0  0  0  0  0
   -2.1780    0.5830   -0.3070 C   0  0  0  0  0
   -3.5180    0.2830   -0.7030 O   0  0  0  0  0
   -2.0010    0.3730    1.2150 C   0  0  0  0  0
   -3.2280   -0.0590    1.8060 O   0  0  0  0  0
   -0.9240   -0.7290    1.3170 C   0  0  0  0  0
   -0.0360   -0.4700    2.4530 N   0  0  0  0  0
    0.6520    0.6830    2.5140 C   0  0  0  0  0
    0.5290    1.5040    1.6200 O   0  0  0  0  0
    1.4670    0.9450    3.5350 N   0  0  0  0  0
    1.6200    0.0700    4.5200 C   0  0  0  0  0
    2.4640    0.3500    5.5690 N   0  0  0  0  0
    0.9160   -1.1510    4.4830 C   0  0  0  0  0
    0.0870   -1.3990    3.4420 C   0  0  0  0  0
    2.5010   -0.5690   -5.4560 H   0  0  0  0  0
   -0.5080   -0.6080   -5.3230 H   0  0  0  0  0
   -1.3150    0.3710   -2.9410 H   0  0  0  0  0
   -0.0520    1.1180   -1.9330 H   0  0  0  0  0
   -1.6990   -1.3500   -1.1880 H   0  0  0  0  0
   -1.9170    1.6040   -0.5860 H   0  0  0  0  0
   -4.0880    0.9390   -0.2780 H   0  0  0  0  0
   -1.6530    1.2900    1.6890 H   0  0  0  0  0
   -3.8740    0.6440    1.6560 H   0  0  0  0  0
   -1.3920   -1.7080    1.4180 H   0  0  0  0  0
    2.9500    1.1890    5.5900 H   0  0  0  0  0
    2.5710   -0.2890    6.2900 H   0  0  0  0  0
    1.0300   -1.8730    5.2780 H   0  0  0  0  0
   -0.4650   -2.3260    3.3930 H   0  0  0  0  0
  1  2  1  0  0  0
  1 22  1  0  0  0
  2  3  2  0  0  0
  2  4  1  0  0  0
  2  5  1  0  0  0
  4 23  1  0  0  0
  5  6  1  0  0  0
  6  7  1  0  0  0
  6 24  1  0  0  0
  6 25  1  0  0  0
  7  8  1  0  0  0
  7  9  1  0  0  0
  7 26  1  0  0  0
  8 13  1  0  0  0
  9 10  1  0  0  0
  9 11  1  0  0  0
  9 27  1  0  0  0
 10 28  1  0  0  0
 11 12  1  0  0  0
 11 13  1  0  0  0
 11 29  1  0  0  0
 12 30  1  0  0  0
 13 14  1  0  0  0
 13 31  1  0  0  0
 14 15  1  0  0  0
 14 21  1  0  0  0
 15 16  2  0  0  0
 15 17  1  0  0  0
 17 18  2  0  0  0
 18 19  1  0  0  0
 18 20  1  0  0  0
 19 32  1  0  0  0
 19 33  1  0  0  0
 20 21  2  0  0  0
 20 34  1  0  0  0
 21 35  1  0  0  0
M  END
$$$$
