DA
  CCTOOLS-1004241125

 36 38  0  0  1  0  0  0  0  0999 V2000
    1.8450   -1.2820   -5.3390 O   0  0  0  0  0
    0.9340   -0.1560   -4.6360 P   0  0  0  0  0
    1.7810    0.9960   -4.2550 O   0  0  0  0  0
   -0.2040    0.3310   -5.6650 O   0  0  0  0  0
    0.2410   -0.7710   -3.3200 O   0  0  0  0  0
   -0.5490    0.2700   -2.7440 C   0  0  0  0  0
   -1.2390   -0.2510   -1.4820 C   0  0  0  0  0
   -0.2670   -0.5640   -0.4580 O   0  0  0  0  0
   -2.1050    0.8590   -0.8350 C   0  0  0  0  0
   -3.4090    0.8950   -1.4180 O   0  0  0  0  0
   -2.1730    0.3980    0.6400 C   0  0  0  0  0
   -0.9650   -0.5450    0.7970 C   0  0  0  0  0
   -0.0780   -0.0470    1.8520 N   0  0  0  0  0
    0.9620    0.8170    1.6890 C   0  0  0  0  0
    1.5350    1.0440    2.8350 N   0  0  0  0  0
    0.8970    0.3460    3.8050 C   0  0  0  0  0
    1.0690    0.1960    5.1910 C   0  0  0  0  0
    2.0790    0.8690    5.8560 N   0  0  0  0  0
    0.2360   -0.6030    5.8500 N   0  0  0  0  0
   -0.7290   -1.2490    5.2240 C   0  0  0  0  0
   -0.9250   -1.1440    3.9270 N   0  0  0  0  0
   -0.1420   -0.3680    3.1840 C   0  0  0  0  0
    2.2410   -0.8730   -6.1210 H   0  0  0  0  0
   -0.7320   -0.4470   -5.8870 H   0  0  0  0  0
   -1.3020    0.5940   -3.4630 H   0  0  0  0  0
    0.0920    1.1120   -2.4860 H   0  0  0  0  0
   -1.8460   -1.1260   -1.7120 H   0  0  0  0  0
   -1.6170    1.8300   -0.9180 H   0  0  0  0  0
   -3.9240    1.5380   -0.9130 H   0  0  0  0  0
   -3.1030   -0.1360    0.8310 H   0  0  0  0  0
   -2.0790    1.2530    1.3110 H   0  0  0  0  0
   -1.3090   -1.5490    1.0460 H   0  0  0  0  0
    1.2660    1.2500    0.7480 H   0  0  0  0  0
    2.1850    0.7610    6.8140 H   0  0  0  0  0
    2.6830    1.4470    5.3630 H   0  0  0  0  0
   -1.3830   -1.8890    5.7980 H   0  0  0  0  0
  1  2  1  0  0  0
  1 23  1  0  0  0
  2  3  2  0  0  0
  2  4  1  0  0  0
  2  5  1  0  0  0
  4 24  1  0  0  0
  5  6  1  0  0  0
  6  7  1  0  0  0
  6 25  1  0  0  0
  6 26  1  0  0  0
  7  8  1  0  0  0
  7  9  1  0  0  0
  7 27  1  0  0  0
  8 12  1  0  0  0
  9 10  1  0  0  0
  9 11  1  0  0  0
  9 28  1  0  0  0
 10 29  1  0  0  0
 11 12  1  0  0  0
 11 30  1  0  0  0
 11 31  1  0  0  0
 12 13  1  0  0  0
 12 32  1  0  0  0
 13 14  1  0  0  0
 13 22  1  0  0  0
 14 15  2  0  0  0
 14 33  1  0  0  0
 15 16  1  0  0  0
 16 17  1  0  0  0
 16 22  2  0  0  0
 17 18  1  0  0  0
 17 19  2  0  0  0
 18 34  1  0  0  0
 18 35  1  0  0  0
 19 20  1  0  0  0
 20 21  2  0  0  0
 20 36  1  0  0  0
 21 22  1  0  0  0
M  END
$$$$
