DC
  CCTOOLS-0613250944

 34 35  0  0  1  0  0  0  0  0999 V2000
    1.9410   -1.0550   -4.6720 O   0  0  0  0  0
    0.9870   -0.0170   -3.8940 P   0  0  0  0  0
    1.8020    1.0990   -3.3650 O   0  0  0  0  0
   -0.1190    0.5600   -4.9100 O   0  0  0  0  0
    0.2550   -0.7720   -2.6740 O   0  0  0  0  0
   -0.5710    0.1960   -2.0270 C   0  0  0  0  0
   -1.3000   -0.4590   -0.8520 C   0  0  0  0  0
   -0.3630   -0.8630    0.1710 O   0  0  0  0  0
   -2.2060    0.5690   -0.1290 C   0  0  0  0  0
   -3.4880    0.6490   -0.7560 O   0  0  0  0  0
   -2.3220   -0.0400    1.2880 C   0  0  0  0  0
   -1.1060   -0.9810    1.3950 C   0  0  0  0  0
   -0.2670   -0.5840    2.5280 N   0  0  0  0  0
    0.2700    0.6480    2.5630 C   0  0  0  0  0
    0.0520    1.4240    1.6470 O   0  0  0  0  0
    1.0370    1.0350    3.5810 N   0  0  0  0  0
    1.2910    0.2120    4.5890 C   0  0  0  0  0
    2.0850    0.6220    5.6350 N   0  0  0  0  0
    0.7460   -1.0880    4.5800 C   0  0  0  0  0
   -0.0350   -1.4650    3.5410 C   0  0  0  0  0
    2.3590   -0.5640   -5.3920 H   0  0  0  0  0
   -0.6260   -0.1980   -5.2310 H   0  0  0  0  0
   -1.3020    0.5830   -2.7370 H   0  0  0  0  0
    0.0460    1.0150   -1.6590 H   0  0  0  0  0
   -1.8850   -1.3130   -1.1930 H   0  0  0  0  0
   -1.7310    1.5490   -0.0940 H   0  0  0  0  0
   -4.0310    1.2320   -0.2070 H   0  0  0  0  0
   -3.2500   -0.6020    1.3870 H   0  0  0  0  0
   -2.2660    0.7420    2.0460 H   0  0  0  0  0
   -1.4440   -2.0090    1.5260 H   0  0  0  0  0
    2.4610    1.5160    5.6360 H   0  0  0  0  0
    2.2650    0.0190    6.3730 H   0  0  0  0  0
    0.9430   -1.7710    5.3940 H   0  0  0  0  0
   -0.4670   -2.4540    3.5140 H   0  0  0  0  0
  1  2  1  0  0  0
  1 21  1  0  0  0
  2  3  2  0  0  0
  2  4  1  0  0  0
  2  5  1  0  0  0
  4 22  1  0  0  0
  5  6  1  0  0  0
  6  7  1  0  0  0
  6 23  1  0  0  0
  6 24  1  0  0  0
  7  8  1  0  0  0
  7  9  1  0  0  0
  7 25  1  0  0  0
  8 12  1  0  0  0
  9 10  1  0  0  0
  9 11  1  0  0  0
  9 26  1  0  0  0
 10 27  1  0  0  0
 11 12  1  0  0  0
 11 28  1  0  0  0
 11 29  1  0  0  0
 12 13  1  0  0  0
 12 30  1  0  0  0
 13 14  1  0  0  0
 13 20  1  0  0  0
 14 15  2  0  0  0
 14 16  1  0  0  0
 16 17  2  0  0  0
 17 18  1  0  0  0
 17 19  1  0  0  0
 18 31  1  0  0  0
 18 32  1  0  0  0
 19 20  2  0  0  0
 19 33  1  0  0  0
 20 34  1  0  0  0
M  END
$$$$
