DG
  CCTOOLS-0807261402

 37 39  0  0  1  0  0  0  0  0999 V2000
   -1.6030   -1.5470    5.6240 O   0  0  0  0  0
   -0.8180   -0.3210    4.9350 P   0  0  0  0  0
   -1.7740    0.7660    4.6300 O   0  0  0  0  0
    0.3120    0.2240    5.9410 O   0  0  0  0  0
   -0.1260   -0.8260    3.5720 O   0  0  0  0  0
    0.5500    0.3000    3.0110 C   0  0  0  0  0
    1.2330   -0.1130    1.7060 C   0  0  0  0  0
    0.2530   -0.4710    0.7050 O   0  0  0  0  0
    1.9760    1.0910    1.0730 C   0  0  0  0  0
    3.2940    1.2180    1.6120 O   0  0  0  0  0
    2.0260    0.6920   -0.4210 C   0  0  0  0  0
    0.8970   -0.3450   -0.5730 C   0  0  0  0  0
   -0.0680    0.1110   -1.5750 N   0  0  0  0  0
   -1.1720    0.8770   -1.3410 C   0  0  0  0  0
   -1.8040    1.0940   -2.4580 N   0  0  0  0  0
   -1.1450    0.4820   -3.4720 C   0  0  0  0  0
   -1.3610    0.3770   -4.8660 C   0  0  0  0  0
   -2.3210    0.9140   -5.3910 O   0  0  0  0  0
   -0.4730   -0.3270   -5.6010 N   0  0  0  0  0
    0.5930   -0.9280   -5.0030 C   0  0  0  0  0
    1.4740   -1.6430   -5.7740 N   0  0  0  0  0
    0.8040   -0.8390   -3.7090 N   0  0  0  0  0
   -0.0270   -0.1520   -2.9170 C   0  0  0  0  0
   -2.0020   -1.2030    6.4350 H   0  0  0  0  0
    0.9130   -0.5130    6.1140 H   0  0  0  0  0
    1.2990    0.6610    3.7150 H   0  0  0  0  0
   -0.1700    1.0930    2.8080 H   0  0  0  0  0
    1.9210   -0.9400    1.8790 H   0  0  0  0  0
    1.4110    2.0130    1.2110 H   0  0  0  0  0
    3.7320    1.9210    1.1140 H   0  0  0  0  0
    2.9900    0.2460   -0.6650 H   0  0  0  0  0
    1.8340    1.5590   -1.0530 H   0  0  0  0  0
    1.3160   -1.3060   -0.8730 H   0  0  0  0  0
   -1.4770    1.2480   -0.3730 H   0  0  0  0  0
   -0.6010   -0.4130   -6.5590 H   0  0  0  0  0
    2.2400   -2.0730   -5.3630 H   0  0  0  0  0
    1.3290   -1.7220   -6.7300 H   0  0  0  0  0
  1  2  1  0  0  0
  1 24  1  0  0  0
  2  3  2  0  0  0
  2  4  1  0  0  0
  2  5  1  0  0  0
  4 25  1  0  0  0
  5  6  1  0  0  0
  6  7  1  0  0  0
  6 26  1  0  0  0
  6 27  1  0  0  0
  7  8  1  0  0  0
  7  9  1  0  0  0
  7 28  1  0  0  0
  8 12  1  0  0  0
  9 10  1  0  0  0
  9 11  1  0  0  0
  9 29  1  0  0  0
 10 30  1  0  0  0
 11 12  1  0  0  0
 11 31  1  0  0  0
 11 32  1  0  0  0
 12 13  1  0  0  0
 12 33  1  0  0  0
 13 14  1  0  0  0
 13 23  1  0  0  0
 14 15  2  0  0  0
 14 34  1  0  0  0
 15 16  1  0  0  0
 16 17  1  0  0  0
 16 23  2  0  0  0
 17 18  2  0  0  0
 17 19  1  0  0  0
 19 20  1  0  0  0
 19 35  1  0  0  0
 20 21  1  0  0  0
 20 22  2  0  0  0
 21 36  1  0  0  0
 21 37  1  0  0  0
 22 23  1  0  0  0
M  END
$$$$
