DT
  CCTOOLS-1004241127

 36 37  0  0  1  0  0  0  0  0999 V2000
   -3.9120   -2.3110    1.6360 O   0  0  0  0  0
   -3.9680   -1.6650    3.1180 P   0  0  0  0  0
   -4.4060   -2.5990    4.2080 O   0  0  0  0  0
   -4.9010   -0.3600    2.9200 O   0  0  0  0  0
   -2.4930   -1.0280    3.3150 O   0  0  0  0  0
   -2.0050   -0.1360    2.3270 C   0  0  0  0  0
   -0.6110    0.3280    2.7280 C   0  0  0  0  0
    0.2470   -0.8290    2.7640 O   0  0  0  0  0
    0.0080    1.2860    1.7200 C   0  0  0  0  0
    0.9650    2.1210    2.3680 O   0  0  0  0  0
    0.7100    0.3600    0.7540 C   0  0  0  0  0
    1.1570   -0.7780    1.6570 C   0  0  0  0  0
    1.1640   -2.0470    0.9890 N   0  0  0  0  0
    2.3330   -2.5440    0.3740 C   0  0  0  0  0
    3.4100   -1.9450    0.3630 O   0  0  0  0  0
    2.1940   -3.7930   -0.2400 N   0  0  0  0  0
    1.0470   -4.5700   -0.3000 C   0  0  0  0  0
    0.9950   -5.6630   -0.8570 O   0  0  0  0  0
   -0.1430   -3.9800    0.3690 C   0  0  0  0  0
   -1.4200   -4.7570    0.3470 C   0  0  0  0  0
   -0.0130   -2.7840    0.9580 C   0  0  0  0  0
   -4.6840   -2.8230    1.3130 H   0  0  0  0  0
   -5.8740   -0.4750    2.8710 H   0  0  0  0  0
   -1.9710   -0.6540    1.3660 H   0  0  0  0  0
   -2.6830    0.7180    2.2540 H   0  0  0  0  0
   -0.6440    0.7530    3.7360 H   0  0  0  0  0
   -0.7220    1.9410    1.2360 H   0  0  0  0  0
    0.7430    3.0420    2.1460 H   0  0  0  0  0
   -0.0030   -0.0010    0.0030 H   0  0  0  0  0
    1.5560    0.8180    0.2320 H   0  0  0  0  0
    2.1630   -0.6040    2.0540 H   0  0  0  0  0
    3.0230   -4.1710   -0.6890 H   0  0  0  0  0
   -1.7350   -4.9160   -0.6830 H   0  0  0  0  0
   -2.1950   -4.2080    0.8810 H   0  0  0  0  0
   -1.2720   -5.7210    0.8330 H   0  0  0  0  0
   -0.8570   -2.3180    1.4580 H   0  0  0  0  0
  1  2  1  0  0  0
  1 22  1  0  0  0
  2  3  2  0  0  0
  2  4  1  0  0  0
  2  5  1  0  0  0
  4 23  1  0  0  0
  5  6  1  0  0  0
  6  7  1  0  0  0
  6 24  1  0  0  0
  6 25  1  0  0  0
  7  8  1  0  0  0
  7  9  1  0  0  0
  7 26  1  0  0  0
  8 12  1  0  0  0
  9 10  1  0  0  0
  9 11  1  0  0  0
  9 27  1  0  0  0
 10 28  1  0  0  0
 11 12  1  0  0  0
 11 29  1  0  0  0
 11 30  1  0  0  0
 12 13  1  0  0  0
 12 31  1  0  0  0
 13 14  1  0  0  0
 13 21  1  0  0  0
 14 15  2  0  0  0
 14 16  1  0  0  0
 16 17  1  0  0  0
 16 32  1  0  0  0
 17 18  2  0  0  0
 17 19  1  0  0  0
 19 20  1  0  0  0
 19 21  2  0  0  0
 20 33  1  0  0  0
 20 34  1  0  0  0
 20 35  1  0  0  0
 21 36  1  0  0  0
M  END
$$$$
