G
  CCTOOLS-0626261020

 38 40  0  0  1  0  0  0  0  0999 V2000
   -1.9450   -1.3600    5.5990 O   0  0  0  0  0
   -0.9110   -0.2770    5.0080 P   0  0  0  0  0
   -1.5980    1.0220    4.8440 O   0  0  0  0  0
    0.3250   -0.1050    6.0250 O   0  0  0  0  0
   -0.3650   -0.7800    3.5800 O   0  0  0  0  0
    0.5420    0.2170    3.1090 C   0  0  0  0  0
    1.1000   -0.2000    1.7480 C   0  0  0  0  0
    0.0330   -0.3180    0.7820 O   0  0  0  0  0
    2.0250    0.8980    1.1820 C   0  0  0  0  0
    3.3950    0.5820    1.4390 O   0  0  0  0  0
    1.7410    0.8840   -0.3380 C   0  0  0  0  0
    2.9270    0.5600   -1.0660 O   0  0  0  0  0
    0.6750   -0.2200   -0.5070 C   0  0  0  0  0
   -0.2970    0.1620   -1.5340 N   0  0  0  0  0
   -1.4400    0.8800   -1.3340 C   0  0  0  0  0
   -2.0660    1.0370   -2.4640 N   0  0  0  0  0
   -1.3640    0.4310   -3.4530 C   0  0  0  0  0
   -1.5560    0.2790   -4.8460 C   0  0  0  0  0
   -2.5340    0.7550   -5.3970 O   0  0  0  0  0
   -0.6260   -0.4010   -5.5510 N   0  0  0  0  0
    0.4590   -0.9340   -4.9230 C   0  0  0  0  0
    1.3840   -1.6260   -5.6640 N   0  0  0  0  0
    0.6490   -0.8000   -3.6300 N   0  0  0  0  0
   -0.2260   -0.1340   -2.8680 C   0  0  0  0  0
   -2.2470   -1.0210    6.4530 H   0  0  0  0  0
    0.7450   -0.9730    6.1040 H   0  0  0  0  0
    1.3620    0.3270    3.8200 H   0  0  0  0  0
    0.0180    1.1680    3.0110 H   0  0  0  0  0
    1.6400   -1.1440    1.8330 H   0  0  0  0  0
    1.7720    1.8680    1.6100 H   0  0  0  0  0
    3.9230    1.3000    1.0650 H   0  0  0  0  0
    1.3460    1.8470   -0.6620 H   0  0  0  0  0
    3.5730    1.2540   -0.8710 H   0  0  0  0  0
    1.1480   -1.1670   -0.7690 H   0  0  0  0  0
   -1.7760    1.2610   -0.3810 H   0  0  0  0  0
   -0.7360   -0.5180   -6.5080 H   0  0  0  0  0
    2.1650   -2.0070   -5.2320 H   0  0  0  0  0
    1.2560   -1.7360   -6.6190 H   0  0  0  0  0
  1  2  1  0  0  0
  1 25  1  0  0  0
  2  3  2  0  0  0
  2  4  1  0  0  0
  2  5  1  0  0  0
  4 26  1  0  0  0
  5  6  1  0  0  0
  6  7  1  0  0  0
  6 27  1  0  0  0
  6 28  1  0  0  0
  7  8  1  0  0  0
  7  9  1  0  0  0
  7 29  1  0  0  0
  8 13  1  0  0  0
  9 10  1  0  0  0
  9 11  1  0  0  0
  9 30  1  0  0  0
 10 31  1  0  0  0
 11 12  1  0  0  0
 11 13  1  0  0  0
 11 32  1  0  0  0
 12 33  1  0  0  0
 13 14  1  0  0  0
 13 34  1  0  0  0
 14 15  1  0  0  0
 14 24  1  0  0  0
 15 16  2  0  0  0
 15 35  1  0  0  0
 16 17  1  0  0  0
 17 18  1  0  0  0
 17 24  2  0  0  0
 18 19  2  0  0  0
 18 20  1  0  0  0
 20 21  1  0  0  0
 20 36  1  0  0  0
 21 22  1  0  0  0
 21 23  2  0  0  0
 22 37  1  0  0  0
 22 38  1  0  0  0
 23 24  1  0  0  0
M  END
$$$$
