U
  CCTOOLS-0919241036

 34 35  0  0  1  0  0  0  0  0999 V2000
   -2.1220    1.0330   -4.6900 O   0  0  0  0  0
   -1.0300    0.0470   -4.0370 P   0  0  0  0  0
   -1.6790   -1.2280   -3.6600 O   0  0  0  0  0
    0.1380   -0.2410   -5.1070 O   0  0  0  0  0
   -0.3990    0.7360   -2.7260 O   0  0  0  0  0
    0.5570   -0.1820   -2.1960 C   0  0  0  0  0
    1.1970    0.4150   -0.9420 C   0  0  0  0  0
    0.1940    0.6450    0.0740 O   0  0  0  0  0
    2.1810   -0.5880   -0.3010 C   0  0  0  0  0
    3.5240   -0.2880   -0.6860 O   0  0  0  0  0
    1.9950   -0.3830    1.2180 C   0  0  0  0  0
    3.2190    0.0460    1.8190 O   0  0  0  0  0
    0.9220    0.7230    1.3190 C   0  0  0  0  0
    0.0280    0.4640    2.4510 N   0  0  0  0  0
   -0.6900   -0.6710    2.4860 C   0  0  0  0  0
   -0.5870   -1.4740    1.5800 O   0  0  0  0  0
   -1.5150   -0.9360    3.5170 N   0  0  0  0  0
   -1.6410   -0.0550    4.5300 C   0  0  0  0  0
   -2.3910   -0.2920    5.4600 O   0  0  0  0  0
   -0.8940    1.1460    4.5020 C   0  0  0  0  0
   -0.0700    1.3840    3.4590 C   0  0  0  0  0
   -2.4750    0.5830   -5.4700 H   0  0  0  0  0
    0.5340    0.6130   -5.3250 H   0  0  0  0  0
    1.3290   -0.3730   -2.9420 H   0  0  0  0  0
    0.0600   -1.1170   -1.9400 H   0  0  0  0  0
    1.7120    1.3450   -1.1850 H   0  0  0  0  0
    1.9230   -1.6090   -0.5830 H   0  0  0  0  0
    4.0940   -0.9260   -0.2340 H   0  0  0  0  0
    1.6430   -1.3010    1.6880 H   0  0  0  0  0
    3.8650   -0.6570    1.6710 H   0  0  0  0  0
    1.3920    1.7000    1.4230 H   0  0  0  0  0
   -2.0240   -1.7620    3.5280 H   0  0  0  0  0
   -0.9820    1.8630    5.3050 H   0  0  0  0  0
    0.5070    2.2950    3.4210 H   0  0  0  0  0
  1  2  1  0  0  0
  1 22  1  0  0  0
  2  3  2  0  0  0
  2  4  1  0  0  0
  2  5  1  0  0  0
  4 23  1  0  0  0
  5  6  1  0  0  0
  6  7  1  0  0  0
  6 24  1  0  0  0
  6 25  1  0  0  0
  7  8  1  0  0  0
  7  9  1  0  0  0
  7 26  1  0  0  0
  8 13  1  0  0  0
  9 10  1  0  0  0
  9 11  1  0  0  0
  9 27  1  0  0  0
 10 28  1  0  0  0
 11 12  1  0  0  0
 11 13  1  0  0  0
 11 29  1  0  0  0
 12 30  1  0  0  0
 13 14  1  0  0  0
 13 31  1  0  0  0
 14 15  1  0  0  0
 14 21  1  0  0  0
 15 16  2  0  0  0
 15 17  1  0  0  0
 17 18  1  0  0  0
 17 32  1  0  0  0
 18 19  2  0  0  0
 18 20  1  0  0  0
 20 21  2  0  0  0
 20 33  1  0  0  0
 21 34  1  0  0  0
M  END
$$$$
